     600
 i =       73, E =     -2964.8652250756
I    5.1997987309    5.1608610707    -38.8108
I    5.1998053528    14.0525120500    -38.8108
I    13.9639523946    5.1608647171    -38.8108
I    13.9639514769    14.0525116220    -38.8108
I    4.0937352897    0.7751946080    -38.6495
I    4.0937366231    9.6668400119    -38.6494
I    12.8578840590    0.7751918427    -38.6494
I    12.8578811061    9.6668473967    -38.6495
I    0.7256814498    4.2512238715    -37.8197
I    0.7256845584    13.1428745427    -37.8197
I    9.4898305268    4.2512282566    -37.8197
I    9.4898298376    13.1428762480    -37.8197
I    -0.0641090108    17.6905455983    -37.4573
I    -0.0641072242    8.7988986518    -37.4573
I    8.7000404749    17.6905420132    -37.4573
I    8.7000421327    8.7988955356    -37.4573
I    3.3256965148    7.1631709676    -35.0322
I    3.3257025492    16.0548212348    -35.0322
I    12.0898618570    7.1631750586    -35.0322
I    12.0898554217    16.0548167619    -35.0322
I    6.0130276914    2.3169146061    -35.0106
I    6.0130297529    11.2085739749    -35.0106
I    14.7771752753    2.3169153821    -35.0106
I    14.7771711762    11.2085694627    -35.0106
I    0.6731848440    0.6170831656    -32.6263
I    0.6731867465    9.5087398888    -32.6263
I    9.4373157998    0.6170778591    -32.6263
I    9.4373208097    9.5087258703    -32.6263
I    8.6020709957    5.2178460620    -32.2939
I    8.6020720926    14.1094987173    -32.2938
I    17.3662234404    5.2178547296    -32.2938
I    17.3662213641    14.1094979443    -32.2939
I    5.2407461247    8.6496682916    -31.4641
I    5.2407428644    17.5413165372    -31.4641
I    14.0049113646    8.6496551177    -31.4641
I    14.0049075816    17.5413160776    -31.4641
I    4.3723119208    4.3852954813    -31.235
I    4.3723110926    13.2769388252    -31.235
I    13.1364868626    4.3853207854    -31.235
I    13.1364803659    13.2769710635    -31.235
I    7.6880543598    2.6736313801    -28.7826
I    7.6880537266    11.5652833268    -28.7826
I    16.4521937800    2.6736370153    -28.7826
I    16.4521988963    11.5652950692    -28.7826
I    1.7241028602    6.8008450776    -28.7703
I    1.7240908560    15.6924992051    -28.7703
I    10.4882279488    6.8008524386    -28.7703
I    10.4882343699    15.6925065425    -28.7703
I    5.0278342727    5.0558812025    -26.3687
I    5.0278248948    13.9475333808    -26.3687
I    13.7919780292    5.0558954399    -26.3687
I    13.7919800791    13.9475435218    -26.3687
I    4.1895816627    0.8062297128    -26.0984
I    4.1895897526    9.6978714058    -26.0984
I    12.9537053257    0.8062451340    -26.0984
I    12.9537095017    9.6978961206    -26.0984
I    0.8399305534    4.2292965230    -25.2265
I    0.8399322225    13.1209514468    -25.2265
I    9.6040938965    4.2292978288    -25.2265
I    9.6040971990    13.1209452907    -25.2265
I    -0.0030366956    -0.0278139063    -24.9434
I    -0.0030272024    8.8638394213    -24.9434
I    8.7611089011    -0.0278346216    -24.9434
I    8.7611070782    8.8638212695    -24.9434
I    3.3114099313    7.1323640035    -22.5318
I    3.3114244967    16.0240061300    -22.5319
I    12.0755873772    7.1323663930    -22.5319
I    12.0755740732    16.0240133596    -22.5318
I    6.0994517754    2.3563791995    -22.5282
I    6.0994572793    11.2480310822    -22.5281
I    14.8635850580    2.3563771598    -22.5282
I    14.8635830195    11.2480327043    -22.5282
I    0.6431989625    0.6308206002    -20.1208
I    0.6431846951    9.5224863194    -20.1208
I    9.4073370376    0.6308296918    -20.1208
I    9.4073457531    9.5224649579    -20.1208
I    8.5776395936    5.2561694957    -19.8583
I    8.5776439465    14.1478253758    -19.8582
I    17.3417926370    5.2561769671    -19.8582
I    17.3417894981    14.1478176175    -19.8583
I    5.2164913172    8.6936113266    -18.9756
I    5.2164869164    17.5852555925    -18.9756
I    13.9806382145    8.6936077637    -18.9756
I    13.9806410310    17.5852621057    -18.9756
I    4.3745183355    4.4346085682    -18.7041
I    4.3745275639    13.3262361872    -18.7041
I    13.1386795858    4.4345907130    -18.7041
I    13.1386653072    13.3262539336    -18.7041
I    7.6885037865    2.6983614638    -16.2905
I    7.6885109966    11.5900109060    -16.2905
I    16.4526594082    2.6983592047    -16.2905
I    16.4526544870    11.5900114266    -16.2905
I    1.7109433137    6.8125563925    -16.2863
I    1.7109594441    15.7042067763    -16.2863
I    10.4751127695    6.8125654088    -16.2863
I    10.4750959493    15.7042094953    -16.2863
I    5.0179055829    5.1003558850    -13.884
I    5.0178965077    13.9920037309    -13.884
I    13.7820485099    5.1003558228    -13.884
I    13.7820588668    13.9920074664    -13.884
I    4.1915699336    0.8306212633    -13.595
I    4.1915749699    9.7222565066    -13.595
I    12.9557177333    0.8306134708    -13.595
I    12.9557219886    9.7222704645    -13.595
I    0.8358099953    4.2602064488    -12.7236
I    0.8358136386    13.1518617754    -12.7236
I    9.5999582504    4.2602215237    -12.7236
I    9.5999590947    13.1518613501    -12.7236
I    -0.0078781698    0.0249060767    -12.4738
I    -0.0078728065    8.9165501859    -12.4738
I    8.7562772520    0.0248971812    -12.4738
I    8.7562694519    8.9165488046    -12.4738
I    3.2824758682    7.1516605582    -10.0426
I    3.2824653787    16.0433051287    -10.0427
I    12.0466207447    7.1516728410    -10.0427
I    12.0466307461    16.0433084805    -10.0426
I    6.0990722624    2.4166780778    -10.0337
I    6.0990626471    11.3083223508    -10.0337
I    14.8631812521    2.4166775998    -10.0337
I    14.8631884845    11.3083242756    -10.0337
I    0.6450060068    0.6983663584    -7.55504
I    0.6450113252    9.5900181439    -7.55503
I    9.4091572001    0.6983610510    -7.55501
I    9.4091620665    9.5900110749    -7.55501
I    8.5258857229    5.3358911456    -7.36539
I    8.5258977357    14.2275345967    -7.3654
I    17.2900446139    5.3358858223    -7.3654
I    17.2900367263    14.2275317815    -7.3654
I    5.1665736110    8.7638236315    -6.53996
I    5.1665501752    17.6554850946    -6.54
I    13.9307297709    8.7638136035    -6.53996
I    13.9307341545    17.6554664334    -6.53996
I    4.3321185089    4.4564649627    -6.17202
I    4.3321203023    13.3481145266    -6.17204
I    13.0962642737    4.4564569524    -6.17204
I    13.0962683727    13.3481069072    -6.17203
I    7.7825807702    2.7852702585    -3.79841
I    7.7825707709    11.6769207209    -3.7984
I    16.5467075743    2.7852648451    -3.79842
I    16.5467228957    11.6769112502    -3.79842
I    1.6980074982    6.8084414210    -3.7674
I    1.6980040610    15.7000801504    -3.76743
I    10.4621589583    6.8084405197    -3.76742
I    10.4621633930    15.7000586150    -3.7674
I    5.1155588387    5.1988034396    -1.34172
I    5.1155697962    14.0904786889    -1.34174
I    13.8796993739    5.1988055899    -1.34174
I    13.8797111632    14.0904488223    -1.34172
I    4.3136382617    0.8326024699    -0.948304
I    4.3136224558    9.7242771385    -0.948268
I    13.0777688418    0.8326139177    -0.948264
I    13.0777806831    9.7242585997    -0.948286
I    0.9343043635    4.3108355768    -0.127114
I    0.9343137245    13.2024882794    -0.127111
I    9.6984671316    4.3108318951    -0.127094
I    9.6984764910    13.2024742030    -0.127077
I    17.3502723382    -0.0866264313    -1.7198e-05
I    17.3502739648    8.8050137046    0
I    8.5860962912    -0.0866615791    -3.94087e-05
I    8.5861269343    8.8050306250    -1.5706e-05
Pb    2.7057811555    6.7213560406    -38.0436
Pb    2.7057844559    15.6130006683    -38.0436
Pb    11.4699321887    6.7213571838    -38.0436
Pb    11.4699334291    15.6130052019    -38.0436
Pb    6.7312941071    2.2978936438    -38.0064
Pb    6.7312967827    11.1895420257    -38.0064
Pb    15.4954446767    2.2978915849    -38.0064
Pb    15.4954410981    11.1895420954    -38.0064
Pb    2.5281285230    6.9055159450    -31.8788
Pb    2.5281292277    15.7971659060    -31.8789
Pb    11.2922818118    6.9055239399    -31.8789
Pb    11.2922767864    15.7971781744    -31.8788
Pb    6.9588306855    2.4530635225    -31.8891
Pb    6.9588322353    11.3447121418    -31.8891
Pb    15.7229871203    2.4530659640    -31.8891
Pb    15.7229849846    11.3447071075    -31.8891
Pb    2.5219334208    6.9626811926    -25.6523
Pb    2.5219277420    15.8543388463    -25.6523
Pb    11.2860778366    6.9626946862    -25.6523
Pb    11.2860791575    15.8543377443    -25.6523
Pb    6.8959315593    2.5134232600    -25.6473
Pb    6.8959275178    11.4050742218    -25.6473
Pb    15.6600581198    2.5134191411    -25.6473
Pb    15.6600637523    11.4050816827    -25.6473
Pb    2.5091636790    6.9857081868    -19.4102
Pb    2.5091804660    15.8773441714    -19.4102
Pb    11.2733338190    6.9856992111    -19.4102
Pb    11.2733192557    15.8773541787    -19.4102
Pb    6.8875652048    2.5353535987    -19.4104
Pb    6.8875707919    11.4270022133    -19.4104
Pb    15.6517172127    2.5353504400    -19.4104
Pb    15.6517076851    11.4270076135    -19.4104
Pb    2.4867574379    6.9944001108    -13.1621
Pb    2.4867601892    15.8860594033    -13.1621
Pb    11.2509141935    6.9944161219    -13.1621
Pb    11.2509112867    15.8860507774    -13.1621
Pb    6.8790301736    2.5742144072    -13.1732
Pb    6.8790239133    11.4658523704    -13.1732
Pb    15.6431693924    2.5742009773    -13.1732
Pb    15.6431802686    11.4658648421    -13.1732
Pb    2.4811525605    7.0661527374    -6.92892
Pb    2.4811462047    15.9578016917    -6.92896
Pb    11.2453129699    7.0661492367    -6.92895
Pb    11.2453116827    15.9578007216    -6.92892
Pb    6.8150893765    2.6413365100    -6.91838
Pb    6.8150905788    11.5329806871    -6.91838
Pb    15.5792307874    2.6413324365    -6.9184
Pb    15.5792364940    11.5329767508    -6.9184
Pb    2.3100496810    7.2388431261    -0.751415
Pb    2.3100430768    16.1304935229    -0.751449
Pb    11.0741934664    7.2388412221    -0.751438
Pb    11.0741923528    16.1304792079    -0.751415
Pb    7.0486460305    2.7843353234    -0.806186
Pb    7.0486392350    11.6759993929    -0.806178
Pb    15.8127804554    2.7843299419    -0.806201
Pb    15.8127953594    11.6759788922    -0.806203
H    6.4334120459    6.3433822797    -36.3804
H    6.4334180046    15.2350198142    -36.3804
H    15.1975954723    6.3433618816    -36.3804
H    15.1975875667    15.2350151488    -36.3804
H    1.8696163940    2.3938870873    -36.4613
H    1.8696162412    11.2855342624    -36.4613
H    10.6337627038    2.3938845455    -36.4613
H    10.6337634312    11.2855329950    -36.4613
H    7.9156471398    5.7983949753    -35.5443
H    7.9156509167    14.6900349893    -35.5443
H    16.6798367610    5.7984114241    -35.5443
H    16.6798322676    14.6900498330    -35.5443
H    3.2718632799    1.6825517210    -35.8845
H    3.2718647413    10.5742058625    -35.8845
H    12.0360083070    1.6825560469    -35.8845
H    12.0360090642    10.5742100141    -35.8845
H    7.5088429250    8.1742159970    -35.2765
H    7.5088451825    17.0658586435    -35.2765
H    16.2729823926    8.1742274867    -35.2765
H    16.2729804719    17.0658642615    -35.2764
H    3.0854420867    3.9687495655    -35.0771
H    3.0854384735    12.8604062623    -35.0771
H    11.8495715117    3.9687537980    -35.0771
H    11.8495675301    12.8604104690    -35.0771
H    6.3088903510    5.4861848721    -34.8092
H    6.3088922451    14.3778285556    -34.8092
H    15.0730713549    5.4861675109    -34.8092
H    15.0730699887    14.3778228169    -34.8092
H    1.7991811115    1.2768840017    -35.2069
H    1.7991833655    10.1685375213    -35.2069
H    10.5633247947    1.2768802885    -35.2069
H    10.5633241072    10.1685351533    -35.2069
H    6.0340561293    7.8782523191    -34.5211
H    6.0340567322    16.7698972754    -34.5211
H    14.7981526380    7.8782533218    -34.5211
H    14.7981806899    16.7698912700    -34.5211
H    1.4819206065    3.5587334001    -34.3932
H    1.4819175805    12.4503905629    -34.3932
H    10.2460513027    3.5587270905    -34.3932
H    10.2460462343    12.4503860135    -34.3932
H    7.4555590974    7.4007988208    -33.7795
H    7.4555593812    16.2924471490    -33.7795
H    16.2196716463    7.4008144416    -33.7796
H    16.2196941972    16.2924536234    -33.7796
H    2.9631303919    2.8126575644    -33.7136
H    2.9631285881    11.7043212730    -33.7136
H    11.7272646116    2.8126607051    -33.7136
H    11.7272590575    11.7043245682    -33.7136
H    2.0617800889    2.0098801452    -30.2371
H    2.0617855409    10.9014854483    -30.2371
H    10.8260038539    2.0099748300    -30.2372
H    10.8260018787    10.9015985857    -30.2372
H    6.4402253360    6.6211193709    -30.073
H    6.4402278787    15.5127758405    -30.073
H    15.2043819457    6.6211059378    -30.073
H    15.2043785896    15.5127768528    -30.073
H    3.5585621515    1.4772885501    -29.4087
H    3.5585751119    10.3689219022    -29.4087
H    12.3227408671    1.4773027291    -29.4088
H    12.3227444235    10.3689389690    -29.4088
H    7.8654263187    6.1132029443    -29.3507
H    7.8654271190    15.0048531230    -29.3507
H    16.6295685522    6.1131858356    -29.3507
H    16.6295679464    15.0048515031    -29.3507
H    3.0238250126    3.8113366302    -28.9518
H    3.0238206331    12.7029742368    -28.9519
H    11.7880000200    3.8113501392    -28.9518
H    11.7879954464    12.7029903588    -28.9518
H    7.4465091347    8.4281199359    -28.785
H    7.4465144048    17.3197691639    -28.785
H    16.2107105625    8.4281146143    -28.785
H    16.2106901938    17.3197662741    -28.785
H    1.9577762630    1.0331331265    -28.7372
H    1.9577934510    9.9247717587    -28.7371
H    10.7219114743    1.0331657537    -28.7374
H    10.7219164099    9.9248104434    -28.7374
H    6.3885852985    5.6385343156    -28.7113
H    6.3885834321    14.5301866916    -28.7113
H    15.1527344322    5.6385446442    -28.7112
H    15.1527358420    14.5301863121    -28.7112
H    1.5488553724    3.3713965817    -28.2782
H    1.5488513785    12.2630432972    -28.2782
H    10.3129889981    3.3713848989    -28.2782
H    10.3129858492    12.2630341103    -28.2782
H    5.8452109570    7.9479540318    -28.1414
H    5.8452149673    16.8396051598    -28.1414
H    14.6094074115    7.9479944486    -28.1414
H    14.6093890798    16.8396187658    -28.1414
H    2.9783238611    2.9034749542    -27.54
H    2.9783266928    11.7951565357    -27.54
H    11.7424380916    2.9033998147    -27.5401
H    11.7424428539    11.7950703252    -27.5401
H    7.3411629531    7.3840933864    -27.3311
H    7.3411662927    16.2757380645    -27.3311
H    16.1053556442    7.3841236051    -27.3311
H    16.1053388424    16.2757412665    -27.3311
H    6.4510020688    6.5254819782    -23.984
H    6.4510148709    15.4170978362    -23.984
H    15.2152000524    6.5254741447    -23.984
H    15.2151777849    15.4171397451    -23.984
H    2.0592729114    2.1453434186    -23.8125
H    2.0592709258    11.0369878244    -23.8125
H    10.8234227767    2.1453403439    -23.8125
H    10.8234230603    11.0369901772    -23.8125
H    7.9499327094    5.9681291509    -23.176
H    7.9499506008    14.8597727180    -23.176
H    16.7141274780    5.9681571091    -23.176
H    16.7141150135    14.8598008730    -23.176
H    3.4865787815    1.6655953851    -23.0753
H    3.4865805494    10.5572432090    -23.0753
H    12.2507281846    1.6656061709    -23.0753
H    12.2507270093    10.5572519887    -23.0753
H    7.4010959100    8.2776527953    -22.6145
H    7.4010962797    17.1692946107    -22.6145
H    16.1652570849    8.2776786814    -22.6145
H    16.1652480256    17.1693109504    -22.6145
H    3.0647936125    3.9945517737    -22.577
H    3.0647885651    12.8861965603    -22.577
H    11.8289090945    3.9945581721    -22.577
H    11.8289097581    12.8862016191    -22.577
H    6.3503326721    5.4853619162    -22.5274
H    6.3503571940    14.3769986599    -22.5274
H    15.1145334523    5.4853454071    -22.5274
H    15.1145201887    14.3770077626    -22.5274
H    2.0098272861    1.2072798915    -22.4215
H    2.0098331649    10.0989209515    -22.4215
H    10.7739759761    1.2072744139    -22.4215
H    10.7739748403    10.0989175863    -22.4215
H    5.9249528347    7.8005566411    -21.9718
H    5.9249512504    16.6921990916    -21.9718
H    14.6891155438    7.8005378469    -21.9718
H    14.6891065282    16.6921928633    -21.9718
H    1.4646170703    3.5305489701    -21.9181
H    1.4646158460    12.4221863342    -21.9181
H    10.2287359420    3.5305347023    -21.9181
H    10.2287368821    12.4221752847    -21.9181
H    7.3538492575    7.3037661705    -21.2479
H    7.3538481887    16.1954260244    -21.2479
H    16.1179939816    7.3037782888    -21.2479
H    16.1180067107    16.1954124158    -21.2479
H    2.9626560004    2.9908591799    -21.0952
H    2.9626607168    11.8825001690    -21.0952
H    11.7267801137    2.9908633664    -21.0951
H    11.7267795063    11.8824997297    -21.0951
H    2.0655983957    2.0742962511    -17.7417
H    2.0655955364    10.9659257611    -17.7417
H    10.8297531818    2.0742959590    -17.7417
H    10.8297553619    10.9659513154    -17.7417
H    6.4436370024    6.5941932022    -17.5829
H    6.4436690292    15.4858457782    -17.5829
H    15.2078274107    6.5941817482    -17.5829
H    15.2077957666    15.4858525533    -17.5829
H    3.5626706703    1.5192237218    -16.928
H    3.5626698371    10.4108528268    -16.928
H    12.3268147005    1.5192111730    -16.928
H    12.3268125290    10.4108584945    -16.928
H    7.8728085953    6.1266139732    -16.84
H    7.8728045709    15.0182487849    -16.8399
H    16.6369618991    6.1265950747    -16.8399
H    16.6369651102    15.0182733903    -16.84
H    3.0208864611    3.8351412344    -16.3883
H    3.0208852150    12.7267715347    -16.3883
H    11.7850550528    3.8351391473    -16.3883
H    11.7850585448    12.7267874452    -16.3883
H    7.4256305745    8.4507599666    -16.3395
H    7.4256150723    17.3424046715    -16.3395
H    16.1897634108    8.4507528271    -16.3395
H    16.1897788939    17.3424165805    -16.3395
H    1.9612610759    1.0477405889    -16.2759
H    1.9612605002    9.9393712725    -16.2759
H    10.7253964378    1.0477380791    -16.2759
H    10.7253925650    9.9393861509    -16.2759
H    6.3968734700    5.6527922267    -16.1945
H    6.3968603452    14.5444744806    -16.1945
H    15.1610160841    5.6528202033    -16.1945
H    15.1610272719    14.5444459593    -16.1945
H    1.5439881673    3.3691281497    -15.741
H    1.5439868064    12.2607588986    -15.741
H    10.3081320436    3.3691292595    -15.741
H    10.3081339635    12.2607747514    -15.741
H    5.8288019421    7.9690259932    -15.6849
H    5.8287600004    16.8606990914    -15.685
H    14.5929063862    7.9690461155    -15.685
H    14.5929492825    16.8606768216    -15.6849
H    2.9708575999    2.8742081369    -15.0127
H    2.9708564928    11.7658375392    -15.0127
H    11.7349913636    2.8742026306    -15.0127
H    11.7349932000    11.7658437651    -15.0127
H    7.3302988026    7.4422237355    -14.8604
H    7.3302083881    16.3339063036    -14.8604
H    16.0943529190    7.4422625722    -14.8604
H    16.0944439680    16.3338756546    -14.8604
H    6.4256486071    6.5823816205    -11.5053
H    6.4256528482    15.4740300562    -11.5054
H    15.1898274850    6.5823914616    -11.5054
H    15.1898125055    15.4740296818    -11.5054
H    2.0538430311    2.1123309441    -11.2805
H    2.0538331927    11.0039484860    -11.2805
H    10.8179618568    2.1123032253    -11.2805
H    10.8179622938    11.0039573292    -11.2805
H    7.9208484157    6.0147517573    -10.6952
H    7.9208430831    14.9063927621    -10.6952
H    16.6849903485    6.0147287552    -10.6952
H    16.6850198163    14.9064102254    -10.6952
H    3.4852559544    1.6749037234    -10.5269
H    3.4852681001    10.5665781969    -10.5268
H    12.2493999106    1.6749465408    -10.5268
H    12.2493999719    10.5665859072    -10.5269
H    7.4076703582    8.3419347438    -10.1695
H    7.4076816080    17.2335870941    -10.1695
H    16.1718592976    8.3419329441    -10.1695
H    16.1718226461    17.2335871347    -10.1695
H    3.0452993825    4.0128346010    -10.0987
H    3.0452171602    12.9044889334    -10.0988
H    11.8093264166    4.0128556160    -10.0988
H    11.8093401872    12.9044914884    -10.0987
H    6.3178350069    5.5677942650    -10.0314
H    6.3178172754    14.4594471605    -10.0314
H    15.0819399914    5.5677918246    -10.0314
H    15.0820091533    14.4594478328    -10.0314
H    2.0120115410    1.2245277225    -9.85679
H    2.0120637297    10.1161595707    -9.85679
H    10.7761978995    1.2245159210    -9.85678
H    10.7761978199    10.1161546255    -9.85679
H    5.9325792803    7.8963794162    -9.50322
H    5.9325850287    16.7880388749    -9.50323
H    14.6967436208    7.8963936034    -9.50324
H    14.6967341911    16.7880304959    -9.50323
H    1.4442899570    3.5591164723    -9.43433
H    1.4442451168    12.4507167674    -9.43433
H    10.2083567980    3.5590687630    -9.43433
H    10.2083692325    12.4507067981    -9.43432
H    7.3588134457    7.3882969155    -8.78706
H    7.3587916931    16.2799523648    -8.78706
H    16.1229346937    7.3882866385    -8.78707
H    16.1229705244    16.2799567242    -8.78706
H    2.9403400167    3.0531836308    -8.58739
H    2.9403329998    11.9448524303    -8.58739
H    11.7044471064    3.0532202455    -8.58739
H    11.7044571526    11.9448415112    -8.58738
H    2.0815982535    2.2662642815    -5.03541
H    2.0816313466    11.1579183393    -5.03541
H    10.8457932622    2.2662466666    -5.03541
H    10.8457690623    11.1579212587    -5.03541
H    6.3341996144    6.5745172665    -5.04265
H    6.3341850084    15.4661338337    -5.04263
H    15.0983545332    6.5745368905    -5.04266
H    15.0983576492    15.4661710820    -5.04266
H    3.5613175817    1.5305717115    -4.3406
H    3.5613673775    10.4222395620    -4.34059
H    12.3255408830    1.5305783353    -4.3406
H    12.3254937877    10.4222333139    -4.3406
H    7.7608380246    6.1192248696    -4.29645
H    7.7608551356    15.0108527370    -4.29653
H    16.5249801492    6.1192087264    -4.29647
H    16.5249771529    15.0108683229    -4.29647
H    3.2324961738    3.8196087643    -3.54718
H    3.2324953325    12.7112739360    -3.54717
H    11.9966416859    3.8195979980    -3.54716
H    11.9966453215    12.7112602286    -3.54717
H    7.4709512092    8.5143598986    -4.0505
H    7.4709515708    17.4060216262    -4.05064
H    16.2351348944    8.5143470504    -4.05048
H    16.2351138275    17.4060041770    -4.05049
H    1.9551375432    1.1217821539    -3.66189
H    1.9551717683    10.0134457521    -3.6619
H    10.7193466983    1.1217767264    -3.6619
H    10.7193106008    10.0134447316    -3.6619
H    6.2906284385    5.8263181102    -3.53214
H    6.2906130604    14.7179677838    -3.53213
H    15.0547596718    5.8263138147    -3.53217
H    15.0547688398    14.7179400625    -3.53215
H    1.7580504604    3.4145536588    -2.87395
H    1.7580386553    12.3062135046    -2.87397
H    10.5221670001    3.4145484261    -2.87397
H    10.5221813460    12.3062149429    -2.87396
H    5.8701410508    8.2039345709    -3.30184
H    5.8701337140    17.0956128103    -3.30187
H    14.6343119977    8.2039360997    -3.30183
H    14.6343041088    17.0955614086    -3.30183
H    3.1591411824    2.7111649387    -2.28566
H    3.1591311011    11.6028387523    -2.28566
H    11.9232865529    2.7111796573    -2.28566
H    11.9232971344    11.6028320591    -2.28566
H    7.3602217749    7.6830915465    -2.46417
H    7.3602708665    16.5748000216    -2.46434
H    16.1243806503    7.6830555260    -2.46416
H    16.1243716291    16.5747097385    -2.46417
C    6.9020536969    6.1830925676    -35.4056
C    6.9020564411    15.0747339918    -35.4056
C    15.6662061776    6.1831001613    -35.4056
C    15.6662164571    15.0747362038    -35.4056
C    2.4813228189    3.1793187748    -34.623
C    2.4813205743    12.0709771068    -34.623
C    11.2454552164    3.1793190367    -34.623
C    11.2454510139    12.0709779014    -34.623
C    2.5243174462    1.8014493142    -29.269
C    2.5243267526    10.6930774504    -29.269
C    11.2884785585    1.8014861544    -29.2691
C    11.2884802061    10.6931216077    -29.2691
C    6.8813469325    7.6339872281    -28.2908
C    6.8813501239    16.5256362255    -28.2908
C    15.6455642537    7.6340049179    -28.2908
C    15.6455493304    16.5256406109    -28.2908
C    6.9132033211    6.2794095203    -23.0248
C    6.9132178363    15.1710490545    -23.0248
C    15.6773885227    6.2794062008    -23.0248
C    15.6773809860    15.1710665277    -23.0248
C    2.5008284600    3.2138029673    -22.0606
C    2.5008281180    12.1054447831    -22.0606
C    11.2649522538    3.2138024759    -22.0606
C    11.2649529280    12.1054432307    -22.0606
C    2.5268843187    1.8351937370    -16.7803
C    2.5268833709    10.7268232585    -16.7803
C    11.2910274548    1.8351881282    -16.7803
C    11.2910264406    10.7268381294    -16.7803
C    6.8684075982    7.6630891890    -15.8264
C    6.8683912570    16.5547531592    -15.8264
C    15.6325396309    7.6631025669    -15.8264
C    15.6325561067    16.5547423910    -15.8264
C    6.8895311292    6.3447006151    -10.5445
C    6.8895277281    15.2363390196    -10.5445
C    15.6536875577    6.3446914850    -10.5445
C    15.6536991666    15.2363482498    -10.5445
C    2.4833101493    3.2447841497    -9.56196
C    2.4832772563    12.1364251093    -9.56196
C    11.2473922892    3.2447871982    -9.56196
C    11.2474028696    12.1364207193    -9.56195
C    2.5594175663    1.9090005576    -4.12002
C    2.5594385187    10.8006580139    -4.12002
C    11.3236123214    1.9089907620    -4.12002
C    11.3235949130    10.8006619906    -4.12002
C    6.8855876061    7.8238592808    -3.43925
C    6.8856165190    16.7155219697    -3.43934
C    15.6497540291    7.8238493973    -3.43924
C    15.6497503935    16.7154927329    -3.43925
N    2.3516874897    2.0582438886    -35.5977
N    2.3516877958    10.9498962532    -35.5977
N    11.1158326374    2.0582434771    -35.5977
N    11.1158321893    10.9498973151    -35.5977
N    6.9777618875    7.4921824529    -34.6922
N    6.9777660215    16.3838261877    -34.6922
N    15.7420071635    7.4921527622    -34.6922
N    15.7419411568    16.3838127379    -34.6922
N    6.8946280813    6.4221973559    -29.1622
N    6.8946298755    15.3138498032    -29.1622
N    15.6587925808    6.4221956211    -29.1622
N    15.6587885655    15.3138503057    -29.1622
N    2.5186052538    3.0525769653    -28.4562
N    2.5186037620    11.9442249154    -28.4562
N    11.2827421959    3.0525709934    -28.4562
N    11.2827393532    11.9442190125    -28.4562
N    2.5146478117    1.9777736541    -22.897
N    2.5146493758    10.8694181441    -22.897
N    11.2787923889    1.9777741463    -22.897
N    11.2787915217    10.8694193932    -22.897
N    6.8975623537    7.4947089027    -22.1585
N    6.8975644412    16.3863561070    -22.1585
N    15.6617306429    7.4947180257    -22.1585
N    15.6617208933    16.3863578233    -22.1585
N    6.8966810686    6.4287279999    -16.6662
N    6.8966798117    15.3204017125    -16.6663
N    15.6608354955    6.4287458202    -16.6663
N    15.6608358624    15.3203843452    -16.6662
N    2.5151740330    3.0574809371    -15.9254
N    2.5151727733    11.9491116748    -15.9254
N    11.2793180482    3.0574840904    -15.9254
N    11.2793199905    11.9491313843    -15.9254
N    2.5100249356    1.9825730478    -10.3602
N    2.5100278071    10.8742228198    -10.3602
N    11.2741570517    1.9825824380    -10.3602
N    11.2741593975    10.8742244927    -10.3602
N    6.8972948933    7.5732144962    -9.69716
N    6.8972976761    16.4648654618    -9.69717
N    15.6614584831    7.5732189183    -9.69718
N    15.6614514968    16.4648635647    -9.69716
N    6.8146717137    6.5023024009    -4.13012
N    6.8146957252    15.3939228077    -4.13012
N    15.5788204535    6.5022998808    -4.13013
N    15.5788131189    15.3939379794    -4.13012
N    2.6804642839    3.0394787162    -3.15356
N    2.6804589718    11.9311442903    -3.15356
N    11.4446112302    3.0394818815    -3.15356
N    11.4446189809    11.9311424917    -3.15356
